"""

 CRECK Modeling Group (Politecnico di Milano)
 http://creckmodeling.chem.polimi.it/

 BIO1412 kinetic mechanism
 Version 1412, December 2014
 Detailed mechanism of Biomass secondary gas phase components.

 Kinetic scheme: 137 species 4533 reactions

 References

E. Ranzi, A. Cuoci, T. Faravelli, A. Frassoldati, G. Migliavacca, S. Pierucci, S. Sommariva,
Chemical Kinetics of Biomass Pyrolysis, Energy and Fuels 22 (6), pp. 4292-4300 (2008), doi: 10.1021/ef800551t

C. Dupont, L. Chen, J. Cances, J.-M. Commandre, A. Cuoci, S. Pierucci, E. Ranzi,
Biomass pyrolysis: Kinetic modelling and experimental validation under high temperature and flash heating rate conditions, Journal of Analytical and Applied Pyrolysis 85 (1-2), pp. 260-267 (2009), doi:10.1016/j.jaap.2008.11.034

M. Calonaci, R. Grana, E. Barker Hemings, G. Bozzano, M. Dente, E. Ranzi,
Comprehensive Kinetic Modeling Study of Bio-oil Formation from Fast Pyrolysis of Biomass, Energy Fuels, 24 (10), pp 5727-5734 (2010), doi: 10.1021/ef1008902

E. Barker Hemings, C. Cavallotti, A. Cuoci, T. Faravelli, E. Ranzi (2012).
A Detailed Kinetic Study of Pyrolysis and Oxidation of Glycerol (Propane-1,2,3-triol). COMBUSTION SCIENCE AND TECHNOLOGY, vol. 184, p. 1164-1178, ISSN: 0010-2202, doi: 10.1080/00102202.2012.664006

M. Corbetta, A. Frassoldati, H. Bennadji, K. Smith, M. J. Serapiglia, G. Gauthier,T. Melkior, E. Ranzi, E. M. Fisher,
Pyrolysis of Centimeter-Scale Woody Biomass Particles: Kinetic Modeling and Experimental Validation, Energy Fuels 2014, 28, 3884-3898, dx.doi.org/10.1021/ef500525v



"""

units(length='cm', time='s', quantity='mol', act_energy='cal/mol')

ideal_gas(name='gas',
          elements="C H Cl O N Ar He",
          species="""HE          AR          N2          O2
                     H2          H2O         H2O2        CO
                     CO2         CH2O        HCOOH       HCO3H
                     CH4         CH3OH       CH3OOH      C2H2
                     CH2CO       C2H2O2      C2H4        C2H4O
                     CH3CHO      CH3COOH     C2H4O2      C2-OQOOH
                     CH3CO3H     C2H6        C2H5OH      GLIET
                     C2H5OOH     C3H2        AC3H4       PC3H4
                     C2H3CHO     C3H4O2      C3H4O3      C3H6
                     C2H5CHO     CH3COCH3    C3H6O       C3H6O2
                     C3H5OOH     ACETOL      C3-OQOOH    C3H8
                     IC3H7OH     NC3H7OH     C3H7OOH     GLYCEROL
                     C4H2        C4H4        CH2CCHCHO   C4H4O
                     C4H6        IC3H5CHO    C4H6O2      IC4H8
                     NC4H8       CYC5H4O     C5H4O2      CYC5H6
                     MEFU2       C5H8        C5H8O4      C6H6
                     C6H5OH      C6H6O3      MCPTD       DMF
                     C6H8O4      C6H10O5     C6H5CHO     C7H8
                     C6H5OCH3    CRESOL      C8H10O3     C9H10O2
                     C10H8       C11H12O4    O           H
                     OH          HO2         C           CH
                     HCO         HCO3        CH2S        CH2
                     CH3         CH2OH       CH3O        CH3OO
                     C2H         HCCO        C2H3        CH3CO
                     CH2CHO      CH3CO3      C2H5        C2H4OH
                     CH3CHOH     C2H5OO      C2-QOOH     C2-OOQOOH
                     C3H3        CH2CCH3     CHCHCH3     CH2CHCH2
                     RALD3B      RALD3G      CH3COCH2    C3H5OO
                     NC3H7       IC3H7       NC3H7O      IC3H7OO
                     IC3-QOOH    NC3H7OO     NC3-QOOH    IC3-OOQOOH
                     NC3-OOQOOH  C4H3        C4H3O       C4H5
                     IC4H7       CH2C3H5     SC4H7       CYC5H5
                     C5H5O       C5H7        C6H5        C6H5O
                     DMF-3YL     C6H4CH3     C7H7        RCRESOLC
                     RCRESOLO""",
          reactions='all',
          transport='Mix',
          initial_state=state(temperature=300.0, pressure=OneAtm))

#-------------------------------------------------------------------------------
# Species data
#-------------------------------------------------------------------------------

species(name='HE',
        atoms='He:1',
        thermo=(NASA([300.00, 1490.00],
                     [ 2.50000000E+00, -4.07455160E-15,  5.98527266E-18,
                      -3.43074982E-21,  6.74775716E-25, -7.45375000E+02,
                       9.28723974E-01]),
                NASA([1490.00, 3500.00],
                     [ 2.50000000E+00,  7.40336223E-15, -5.56967416E-18,
                       1.73924876E-21, -1.92673709E-25, -7.45375000E+02,
                       9.28723974E-01])),
        transport=gas_transport(geom='atom',
                                diam=2.576,
                                well_depth=10.2))

species(name='AR',
        atoms='Ar:1',
        thermo=(NASA([300.00, 1490.00],
                     [ 2.50000000E+00, -4.07455160E-15,  5.98527266E-18,
                      -3.43074982E-21,  6.74775716E-25, -7.45375000E+02,
                       4.36600000E+00]),
                NASA([1490.00, 3500.00],
                     [ 2.50000000E+00,  7.40336223E-15, -5.56967416E-18,
                       1.73924876E-21, -1.92673709E-25, -7.45375000E+02,
                       4.36600000E+00])),
        transport=gas_transport(geom='atom',
                                diam=3.33,
                                well_depth=136.5))

species(name='N2',
        atoms='N:2',
        thermo=(NASA([300.00, 1050.00],
                     [ 3.85321336E+00, -2.44053349E-03,  5.35160392E-06,
                      -3.75608397E-09,  9.22684330E-13, -1.07969550E+03,
                       1.60217419E+00]),
                NASA([1050.00, 3500.00],
                     [ 2.71287897E+00,  1.90359754E-03, -8.54297556E-07,
                       1.84170938E-10, -1.54715988E-14, -8.40225273E+02,
                       7.15926558E+00])),
        transport=gas_transport(geom='linear',
                                diam=3.621,
                                well_depth=97.53,
                                polar=1.76,
                                rot_relax=4.0))

species(name='O2',
        atoms='O:2',
        thermo=(NASA([300.00, 760.00],
                     [ 3.46035080E+00, -8.85011121E-04,  5.15281056E-06,
                      -5.40712413E-09,  1.87809542E-12, -1.02942573E+03,
                       5.02236126E+00]),
                NASA([760.00, 3500.00],
                     [ 2.81750648E+00,  2.49838007E-03, -1.52493521E-06,
                       4.50547608E-10, -4.87702792E-14, -9.31713392E+02,
                       7.94729337E+00])),
        transport=gas_transport(geom='linear',
                                diam=3.458,
                                well_depth=107.4,
                                polar=1.6,
                                rot_relax=3.8))

species(name='H2',
        atoms='H:2',
        thermo=(NASA([300.00, 750.00],
                     [ 3.08866003E+00,  2.53968841E-03, -5.72992027E-06,
                       5.71701843E-09, -1.98865970E-12, -9.92148124E+02,
                      -2.43823459E+00]),
                NASA([750.00, 3500.00],
                     [ 3.73110902E+00, -8.86706214E-04,  1.12286897E-06,
                      -3.74349782E-10,  4.17963674E-14, -1.08851547E+03,
                      -5.35285855E+00])),
        transport=gas_transport(geom='linear',
                                diam=2.92,
                                well_depth=38.0,
                                polar=0.79,
                                rot_relax=280.0))

species(name='H2O',
        atoms='H:2 O:1',
        thermo=(NASA([300.00, 1590.00],
                     [ 4.03530937E+00, -6.87559833E-04,  2.86629214E-06,
                      -1.50552360E-09,  2.55006790E-13, -3.02783278E+04,
                      -1.99201641E-01]),
                NASA([1590.00, 3500.00],
                     [ 2.30940463E+00,  3.65433887E-03, -1.22983871E-06,
                       2.11931683E-10, -1.50333493E-14, -2.97294901E+04,
                       8.92765177E+00])),
        transport=gas_transport(geom='nonlinear',
                                diam=2.605,
                                well_depth=572.4,
                                dipole=1.844,
                                rot_relax=4.0))

species(name='H2O2',
        atoms='H:2 O:2',
        thermo=(NASA([300.00, 1180.00],
                     [ 2.91896355E+00,  9.92397296E-03, -8.56537418E-06,
                       4.23738723E-09, -8.61930485E-13, -1.76139998E+04,
                       8.76340177E+00]),
                NASA([1180.00, 3500.00],
                     [ 4.56163072E+00,  4.35560969E-03, -1.48694629E-06,
                       2.38275424E-10, -1.46610352E-14, -1.80016693E+04,
                       5.66597119E-01])),
        transport=gas_transport(geom='nonlinear',
                                diam=3.458,
                                well_depth=107.4,
                                rot_relax=3.8))

species(name='CO',
        atoms='C:1 O:1',
        thermo=(NASA([300.00, 1000.00],
                     [ 3.81890943E+00, -2.40697343E-03,  5.75226966E-06,
                      -4.28629830E-09,  1.11070419E-12, -1.43689533E+04,
                       2.49992060E+00]),
                NASA([1000.00, 3500.00],
                     [ 2.68595014E+00,  2.12486373E-03, -1.04548608E-06,
                       2.45538864E-10, -2.22550981E-14, -1.41423615E+04,
                       7.96579426E+00])),
        transport=gas_transport(geom='linear',
                                diam=3.65,
                                well_depth=98.1,
                                polar=1.95,
                                rot_relax=1.8))

species(name='CO2',
        atoms='C:1 O:2',
        thermo=(NASA([300.00, 1620.00],
                     [ 2.44892797E+00,  8.54596135E-03, -6.60570102E-06,
                       2.52769046E-09, -3.80099332E-13, -4.83922906E+04,
                       9.47557732E+00]),
                NASA([1620.00, 3500.00],
                     [ 5.07830985E+00,  2.05366041E-03, -5.94311265E-07,
                       5.38675131E-11,  1.66346855E-15, -4.92442103E+04,
                      -4.47815290E+00])),
        transport=gas_transport(geom='linear',
                                diam=3.763,
                                well_depth=244.0,
                                polar=2.65,
                                rot_relax=2.1))

species(name='CH2O',
        atoms='C:1 H:2 O:1',
        thermo=(NASA([300.00, 930.00],
                     [ 3.13463322E+00,  1.80037482E-03,  8.80336316E-06,
                      -8.92465077E-09,  2.63639286E-12, -1.50171301E+04,
                       7.57920580E+00]),
                NASA([930.00, 3500.00],
                     [ 1.06639253E+00,  1.06960337E-02, -5.54447373E-06,
                       1.36053696E-09, -1.28442554E-13, -1.46324373E+04,
                       1.74071779E+01])),
        transport=gas_transport(geom='nonlinear',
                                diam=3.59,
                                well_depth=498.0,
                                rot_relax=2.0))

species(name='HCOOH',
        atoms='C:1 H:2 O:2',
        thermo=(NASA([300.00, 1800.00],
                     [ 1.36256505E+00,  1.66938805E-02, -1.11828949E-05,
                       3.66178037E-09, -4.73930912E-13, -4.64539011E+04,
                       1.76174180E+01]),
                NASA([1800.00, 3500.00],
                     [ 5.80573302E+00,  6.82017393E-03, -2.95480608E-06,
                       6.14340060E-10, -5.06753135E-14, -4.80534416E+04,
                      -6.42993389E+00])),
        transport=gas_transport(geom='nonlinear',
                                diam=3.855,
                                well_depth=470.6,
                                rot_relax=1.0))

species(name='HCO3H',
        atoms='C:1 H:2 O:3',
        thermo=(NASA([300.00, 1750.00],
                     [ 2.47434199E+00,  2.16898607E-02, -1.63512235E-05,
                       5.87745807E-09, -8.18701091E-13, -3.54892796E+04,
                       1.72835470E+01]),
                NASA([1750.00, 3500.00],
                     [ 1.00230668E+01,  4.43563253E-03, -1.56188514E-06,
                       2.43424395E-10, -1.38391379E-14, -3.81313332E+04,
                      -2.33590722E+01])),
        transport=gas_transport(geom='nonlinear',
                                diam=4.12,
                                well_depth=443.2,
                                rot_relax=1.0))

species(name='CH4',
        atoms='C:1 H:4',
        thermo=(NASA([300.00, 1070.00],
                     [ 2.85765313E+00,  2.53571100E-03,  9.67916346E-06,
                      -8.69880870E-09,  2.25599770E-12, -1.00357904E+04,
                       4.98969392E+00]),
                NASA([1070.00, 3500.00],
                     [-2.82321416E-01,  1.42739336E-02, -6.77628877E-06,
                       1.55380951E-09, -1.39473841E-13, -9.36383584E+03,
                       2.03507024E+01])),
        transport=gas_transport(geom='nonlinear',
                                diam=3.746,
                                well_depth=141.4,
                                polar=2.6,
                                rot_relax=13.0))

species(name='CH3OH',
        atoms='C:1 H:4 O:1',
        thermo=(NASA([300.00, 700.00],
                     [ 2.88895785E+00,  4.85657077E-03,  1.59348814E-05,
                      -2.08247943E-08,  7.94986176E-12, -2.53716460E+04,
                       1.03674509E+01]),
                NASA([700.00, 3500.00],
                     [ 9.34193000E-01,  1.60266556E-02, -8.00101466E-06,
                       1.97129714E-09, -1.91599484E-13, -2.50979789E+04,
                       1.91008457E+01])),
        transport=gas_transport(geom='nonlinear',
                                diam=3.626,
                                well_depth=481.8,
                                rot_relax=1.0))

species(name='CH3OOH',
        atoms='C:1 H:4 O:2',
        thermo=(NASA([300.00, 1800.00],
                     [ 5.93430876E+00,  1.04356674E-02, -3.01974623E-06,
                       1.41830001E-10,  3.83264515E-14, -1.81342471E+04,
                      -2.80822136E+00]),
                NASA([1800.00, 3500.00],
                     [ 5.50146514E+00,  1.13975421E-02, -3.82130848E-06,
                       4.38704910E-10, -2.90617476E-15, -1.79784234E+04,
                      -4.65581411E-01])),
        transport=gas_transport(geom='nonlinear',
                                diam=3.626,
                                well_depth=481.8,
                                rot_relax=1.0))

species(name='C2H2',
        atoms='C:2 H:2',
        thermo=(NASA([300.00, 970.00],
                     [ 1.83812159E+00,  1.64533925E-02, -1.93408005E-05,
                       1.24068047E-08, -3.14627391E-12,  2.61425043E+04,
                       9.54239252E+00]),
                NASA([970.00, 3500.00],
                     [ 4.61193612E+00,  5.01498204E-03, -1.65253694E-06,
                       2.49922532E-10, -1.30568636E-14,  2.56043843E+04,
                      -3.75517096E+00])),
        transport=gas_transport(geom='linear',
                                diam=4.1,
                                well_depth=209.0,
                                rot_relax=2.5))

species(name='CH2CO',
        atoms='C:2 H:2 O:1',
        thermo=(NASA([300.00, 1410.00],
                     [ 2.49197065E+00,  1.58706066E-02, -1.26271528E-05,
                       5.33991909E-09, -9.11597189E-13, -7.58486732E+03,
                       1.06694385E+01]),
                NASA([1410.00, 3500.00],
                     [ 6.03578795E+00,  5.81722422E-03, -1.93206512E-06,
                       2.83140054E-10, -1.50051612E-14, -8.58422380E+03,
                      -7.64505060E+00])),
        transport=gas_transport(geom='nonlinear',
                                diam=3.97,
                                well_depth=436.0,
                                rot_relax=2.0))

species(name='C2H2O2',
        atoms='C:2 H:2 O:2',
        thermo=(NASA([300.00, 1700.00],
                     [ 1.89947966E+00,  2.35363962E-02, -1.81616014E-05,
                       6.72307419E-09, -9.65107677E-13, -2.69305506E+04,
                       1.58338747E+01]),
                NASA([1700.00, 3500.00],
                     [ 9.83116579E+00,  4.87360532E-03, -1.69443300E-06,
                       2.65361078E-10, -1.54439841E-14, -2.96273239E+04,
                      -2.66407027E+01])),
        transport=gas_transport(geom='nonlinear',
                                diam=4.41,
                                well_depth=470.6,
                                rot_relax=1.5))

species(name='C2H4',
        atoms='C:2 H:4',
        thermo=(NASA([300.00, 1800.00],
                     [ 2.66161697E-01,  1.94272328E-02, -1.14541158E-05,
                       3.49691054E-09, -4.39228267E-13,  5.45399123E+03,
                       1.95264329E+01]),
                NASA([1800.00, 3500.00],
                     [ 4.49333672E+00,  1.00335105E-02, -3.62601388E-06,
                       5.97613541E-10, -3.65481279E-14,  3.93220822E+03,
                      -3.35192020E+00])),
        transport=gas_transport(geom='nonlinear',
                                diam=3.971,
                                well_depth=280.8,
                                rot_relax=1.5))

species(name='C2H4O',
        atoms='C:2 H:4 O:1',
        thermo=(NASA([300.00, 1440.00],
                     [-1.76683146E+00,  3.11247960E-02, -2.31168173E-05,
                       9.09246001E-09, -1.49102113E-12, -7.02731487E+03,
                       3.09356489E+01]),
                NASA([1440.00, 3500.00],
                     [ 4.77217531E+00,  1.29608883E-02, -4.19608017E-06,
                       3.32859470E-10,  2.97428516E-14, -8.91054882E+03,
                      -2.99568268E+00])),
        transport=gas_transport(geom='nonlinear',
                                diam=4.53,
                                well_depth=362.6,
                                rot_relax=1.5))

species(name='CH3CHO',
        atoms='C:2 H:4 O:1',
        thermo=(NASA([300.00, 1800.00],
                     [ 9.91751377E-01,  2.23500313E-02, -1.35975169E-05,
                       4.27666307E-09, -5.48877497E-13, -2.10792434E+04,
                       1.99667711E+01]),
                NASA([1800.00, 3500.00],
                     [ 6.27018126E+00,  1.06201871E-02, -3.82264672E-06,
                       6.56340789E-10, -4.60549581E-14, -2.29794782E+04,
                      -8.60119259E+00])),
        transport=gas_transport(geom='nonlinear',
                                diam=3.97,
                                well_depth=436.0,
                                rot_relax=2.0))

species(name='CH3COOH',
        atoms='C:2 H:4 O:2',
        thermo=(NASA([300.00, 1410.00],
                     [ 3.13168541E-01,  3.25739975E-02, -2.58358905E-05,
                       1.08925098E-08, -1.87287967E-12, -5.36203653E+04,
                       2.34914872E+01]),
                NASA([1410.00, 3500.00],
                     [ 7.83491620E+00,  1.12357063E-02, -3.13558070E-06,
                       1.59502818E-10,  3.01357560E-14, -5.57414981E+04,
                      -1.53809923E+01])),
        transport=gas_transport(geom='nonlinear',
                                diam=3.97,
                                well_depth=436.0,
                                rot_relax=2.0))

species(name='C2H4O2',
        atoms='C:2 H:4 O:2',
        thermo=(NASA([300.00, 770.00],
                     [ 4.64403525E+00,  1.38306802E-02,  2.18084389E-06,
                      -8.31108086E-09,  3.28100852E-12, -3.89966715E+04,
                       6.40833543E+00]),
                NASA([770.00, 3500.00],
                     [ 3.40614010E+00,  2.02613044E-02, -1.03463461E-05,
                       2.53497107E-09, -2.40436915E-13, -3.88060356E+04,
                       1.20569218E+01])),
        transport=gas_transport(geom='nonlinear',
                                diam=5.2,
                                well_depth=496.0,
                                rot_relax=1.0))

species(name='C2-OQOOH',
        atoms='C:2 H:4 O:3',
        thermo=(NASA([300.00, 1800.00],
                     [ 5.53941294E+00,  2.40528540E-02, -1.48734621E-05,
                       4.62251869E-09, -5.79298801E-13, -3.23435917E+04,
                       3.51299738E+00]),
                NASA([1800.00, 3500.00],
                     [ 1.06961666E+01,  1.25934013E-02, -5.32391821E-06,
                       1.08565058E-09, -8.80671200E-14, -3.42000230E+04,
                      -2.43964294E+01])),
        transport=gas_transport(geom='nonlinear',
                                diam=4.41,
                                well_depth=470.6,
                                rot_relax=1.5))

species(name='CH3CO3H',
        atoms='C:2 H:4 O:3',
        thermo=(NASA([300.00, 1760.00],
                     [ 3.62388957E+00,  2.85698467E-02, -2.07519902E-05,
                       7.73646324E-09, -1.13354234E-12, -4.27865299E+04,
                       1.21478877E+01]),
                NASA([1760.00, 3500.00],
                     [ 1.54960865E+01,  1.58758106E-03,  2.24425901E-06,
                      -9.74237206E-10,  1.03773065E-13, -4.69655432E+04,
                      -5.18401164E+01])),
        transport=gas_transport(geom='nonlinear',
                                diam=4.12,
                                well_depth=443.2,
                                rot_relax=1.0))

species(name='C2H6',
        atoms='C:2 H:6',
        thermo=(NASA([300.00, 1800.00],
                     [-2.74461309E-01,  2.56422430E-02, -1.44720586E-05,
                       4.30555164E-09, -5.30740425E-13, -1.10464360E+04,
                       2.20452775E+01]),
                NASA([1800.00, 3500.00],
                     [ 4.39373503E+00,  1.52684734E-02, -5.82725051E-06,
                       1.10377088E-09, -8.60486537E-14, -1.27269866E+04,
                      -3.21997495E+00])),
        transport=gas_transport(geom='nonlinear',
                                diam=4.302,
                                well_depth=252.3,
                                rot_relax=1.5))

species(name='C2H5OH',
        atoms='C:2 H:6 O:1',
        thermo=(NASA([300.00, 1380.00],
                     [ 2.48921589E-01,  3.10325255E-02, -2.06429833E-05,
                       7.63017938E-09, -1.24701426E-12, -2.96015836E+04,
                       2.41176395E+01]),
                NASA([1380.00, 3500.00],
                     [ 4.82959470E+00,  1.77552121E-02, -6.21112100E-06,
                       6.58265206E-10,  1.60136692E-14, -3.08658494E+04,
                       5.43180378E-01])),
        transport=gas_transport(geom='nonlinear',
                                diam=4.53,
                                well_depth=362.6,
                                rot_relax=1.5))

species(name='GLIET',
        atoms='C:2 H:6 O:2',
        thermo=(NASA([300.00, 1470.00],
                     [ 9.46220545E-01,  3.43105414E-02, -2.35426471E-05,
                       8.74158516E-09, -1.34917548E-12, -4.79142337E+04,
                       2.37826449E+01]),
                NASA([1470.00, 3500.00],
                     [ 6.66621468E+00,  1.87459315E-02, -7.66039208E-06,
                       1.53874843E-09, -1.24203245E-13, -4.95959120E+04,
                      -6.01671900E+00])),
        transport=gas_transport(geom='nonlinear',
                                diam=4.41,
                                well_depth=470.6,
                                rot_relax=1.5))

species(name='C2H5OOH',
        atoms='C:2 H:6 O:2',
        thermo=(NASA([300.00, 1590.00],
                     [ 1.46294225E+00,  3.56361824E-02, -2.58422768E-05,
                       9.79712822E-09, -1.50801099E-12, -2.15202894E+04,
                       1.92111233E+01]),
                NASA([1590.00, 3500.00],
                     [ 1.15652199E+01,  1.02216474E-02, -1.86630047E-06,
                      -2.55692055E-10,  7.26211298E-14, -2.47328137E+04,
                      -3.42112965E+01])),
        transport=gas_transport(geom='nonlinear',
                                diam=4.53,
                                well_depth=362.6,
                                rot_relax=1.5))

species(name='C3H2',
        atoms='C:3 H:2',
        thermo=(NASA([300.00, 700.00],
                     [ 4.26055345E+00,  1.71049341E-02, -2.71455812E-05,
                       2.40526578E-08, -8.44530180E-12,  6.33877755E+04,
                       4.25633816E+00]),
                NASA([700.00, 3500.00],
                     [ 6.27665898E+00,  5.58433105E-03, -2.45857473E-06,
                       5.41223006E-10, -4.83608105E-14,  6.31055207E+04,
                      -4.75111128E+00])),
        transport=gas_transport(geom='nonlinear',
                                diam=4.1,
                                well_depth=209.0,
                                rot_relax=1.0))

species(name='AC3H4',
        atoms='C:3 H:4',
        thermo=(NASA([300.00, 1800.00],
                     [ 1.21562918E+00,  2.35625008E-02, -1.47340944E-05,
                       4.68570404E-09, -5.99570704E-13,  2.26674413E+04,
                       1.58066578E+01]),
                NASA([1800.00, 3500.00],
                     [ 6.64430238E+00,  1.14987825E-02, -4.68099585E-06,
                       9.62334222E-10, -8.24360065E-14,  2.07131189E+04,
                      -1.35744541E+01])),
        transport=gas_transport(geom='linear',
                                diam=4.76,
                                well_depth=252.0))

species(name='PC3H4',
        atoms='C:3 H:4',
        thermo=(NASA([300.00, 920.00],
                     [ 1.35943188E+00,  2.53869187E-02, -2.11228852E-05,
                       1.09324785E-08, -2.57374996E-12,  2.09309378E+04,
                       1.53500040E+01]),
                NASA([920.00, 3500.00],
                     [ 3.04156590E+00,  1.80732925E-02, -9.19849468E-06,
                       2.29161583E-09, -2.25689445E-13,  2.06214251E+04,
                       7.37493873E+00])),
        transport=gas_transport(geom='linear',
                                diam=4.76,
                                well_depth=252.0,
                                rot_relax=1.0))

species(name='C2H3CHO',
        atoms='C:3 H:4 O:1',
        thermo=(NASA([300.00, 1340.00],
                     [ 3.40917666E-01,  3.51200360E-02, -2.88391725E-05,
                       1.22832633E-08, -2.12384107E-12, -1.16562372E+04,
                       2.26803642E+01]),
                NASA([1340.00, 3500.00],
                     [ 6.70517760E+00,  1.61222451E-02, -7.57298869E-06,
                       1.70307233E-09, -1.49924851E-13, -1.33618589E+04,
                      -9.88613663E+00])),
        transport=gas_transport(geom='nonlinear',
                                diam=4.12,
                                well_depth=443.2,
                                rot_relax=1.0))

species(name='C3H4O2',
        atoms='C:3 H:4 O:2',
        thermo=(NASA([300.00, 1240.00],
                     [ 1.17378045E-01,  4.67086294E-02, -4.58290467E-05,
                       2.26514168E-08, -4.41358036E-12, -3.31793820E+04,
                       2.43405589E+01]),
                NASA([1240.00, 3500.00],
                     [ 1.02920429E+01,  1.38871300E-02, -6.12561993E-06,
                       1.30548845E-09, -1.09965765E-13, -3.57026988E+04,
                      -2.69350036E+01])),
        transport=gas_transport(geom='nonlinear',
                                diam=4.662,
                                well_depth=435.2,
                                dipole=2.7,
                                rot_relax=1.0))

species(name='C3H4O3',
        atoms='C:3 H:4 O:3',
        thermo=(NASA([300.00, 1710.00],
                     [ 2.17563103E+00,  3.78954970E-02, -2.73980784E-05,
                       9.81743159E-09, -1.38498288E-12, -5.38306424E+04,
                       2.19543274E+01]),
                NASA([1710.00, 3500.00],
                     [ 1.37242810E+01,  1.08811110E-02, -3.70124855E-06,
                       5.78901440E-10, -3.43205818E-14, -5.77802807E+04,
                      -3.99570073E+01])),
        transport=gas_transport(geom='nonlinear',
                                diam=4.662,
                                well_depth=435.2,
                                dipole=2.7,
                                rot_relax=1.0))

species(name='C3H6',
        atoms='C:3 H:6',
        thermo=(NASA([300.00, 1800.00],
                     [-2.61886761E-01,  3.20704567E-02, -2.02723602E-05,
                       6.66956086E-09, -8.90307969E-13,  1.26157099E+03,
                       2.37162283E+01]),
                NASA([1800.00, 3500.00],
                     [ 9.21549195E+00,  1.10096151E-02, -2.72165887E-06,
                       1.69301120E-10,  1.25058839E-14, -2.15028535E+03,
                      -2.75773224E+01])),
        transport=gas_transport(geom='nonlinear',
                                diam=4.14,
                                well_depth=307.8,
                                rot_relax=1.0))

species(name='C2H5CHO',
        atoms='C:3 H:6 O:1',
        thermo=(NASA([300.00, 1140.00],
                     [ 4.65967589E+00,  1.41694770E-02,  1.40614860E-05,
                      -1.58387612E-08,  4.15675092E-12, -2.49373071E+04,
                       5.40040975E+00]),
                NASA([1140.00, 3500.00],
                     [-3.19796156E+00,  4.17401347E-02, -2.22156952E-05,
                       5.37596466E-09, -4.95601240E-13, -2.31457657E+04,
                       4.43385409E+01])),